# created with PyMOL 2.4.0a0
@<TRIPOS>MOLECULE
HEM_fix
76 80 1                 
SMALL
USER_CHARGES
@<TRIPOS>ATOM
1	 CAA	-0.333	-15.961	2.021	C.3	1	HEM142	0.000	
2	 CAB	6.431	-8.994	3.817	C.3	1	HEM142	0.000	
3	 CAC	6.613	-13.853	10.079	C.3	1	HEM142	0.000	
4	 CAD	0.569	-18.115	7.060	C.3	1	HEM142	0.000	
5	  NA	2.277	-13.990	3.897	N.2	1	HEM142	0.000	
6	 CBA	-1.826	-15.774	2.153	C.3	1	HEM142	0.000	
7	 CBB	7.438	-8.524	2.842	C.3	1	HEM142	0.000	
8	 CBC	7.888	-14.477	10.234	C.3	1	HEM142	0.000	
9	 CBD	1.214	-19.387	6.604	C.3	1	HEM142	0.000	
10	  NB	4.306	-11.995	4.383	N.2	1	HEM142	0.000	
11	 CGA	-2.570	-16.907	1.461	C.2	1	HEM142	0.000	
12	 CGD	0.204	-20.506	6.566	C.2	1	HEM142	0.000	
13	  ND	2.854	-15.206	6.461	N.2	1	HEM142	0.000	
14	 CHA	1.149	-15.972	4.841	C.2	1	HEM142	0.000	
15	 CHB	2.911	-12.162	2.373	C.2	1	HEM142	0.000	
16	 CHC	5.997	-11.241	5.983	C.2	1	HEM142	0.000	
17	 CHD	4.315	-15.053	8.437	C.2	1	HEM142	0.000	
18	 CMA	0.774	-13.412	0.474	C.3	1	HEM142	0.000	
19	 CMB	4.477	-9.567	1.482	C.3	1	HEM142	0.000	
20	 CMC	7.789	-11.407	8.573	C.3	1	HEM142	0.000	
21	 CMD	2.672	-17.544	9.404	C.3	1	HEM142	0.000	
22	 C1A	1.364	-15.027	3.828	C.2	1	HEM142	0.000	
23	 C1B	3.892	-11.554	3.147	C.2	1	HEM142	0.000	
24	 C1C	5.833	-12.199	6.959	C.2	1	HEM142	0.000	
25	 C1D	3.284	-15.630	7.694	C.2	1	HEM142	0.000	
26	 O1A	-2.763	-16.808	0.233	O.co2	1	HEM142	0.000	
27	 O1D	-0.423	-20.704	5.501	O.co2	1	HEM142	0.000	
28	 C2A	0.674	-14.983	2.566	C.2	1	HEM142	0.000	
29	 C2B	4.624	-10.375	2.766	C.2	1	HEM142	0.000	
30	 C2C	6.632	-12.305	8.157	C.2	1	HEM142	0.000	
31	 C2D	2.509	-16.777	8.101	C.2	1	HEM142	0.000	
32	 O2A	-2.947	-17.894	2.138	O.co2	1	HEM142	0.000	
33	 O2D	0.043	-21.177	7.612	O.co2	1	HEM142	0.000	
34	 C3A	1.158	-13.919	1.874	C.2	1	HEM142	0.000	
35	 C3B	5.500	-10.102	3.793	C.2	1	HEM142	0.000	
36	 C3C	6.155	-13.380	8.861	C.2	1	HEM142	0.000	
37	 C3D	1.609	-17.035	7.106	C.2	1	HEM142	0.000	
38	 C4A	2.167	-13.294	2.710	C.2	1	HEM142	0.000	
39	 C4B	5.292	-11.134	4.794	C.2	1	HEM142	0.000	
40	 C4C	5.078	-13.939	8.083	C.2	1	HEM142	0.000	
41	 C4D	1.834	-16.047	6.065	C.2	1	HEM142	0.000	
42	  NC	4.910	-13.211	6.930	N.2	1	HEM142	0.000	
43	 H01	-0.108	-16.917	2.494	 H	1	HEM142	0.000	
44	 H02	5.696	-8.214	3.619	 H	1	HEM142	0.000	
45	 H03	7.013	-9.168	4.722	 H	1	HEM142	0.000	
46	 H04	6.751	-12.927	10.638	 H	1	HEM142	0.000	
47	 H05	5.876	-14.582	10.416	 H	1	HEM142	0.000	
48	 H06	0.136	-18.254	8.051	 H	1	HEM142	0.000	
49	 H07	-0.221	-17.834	6.364	 H	1	HEM142	0.000	
50	 H08	-2.105	-14.831	1.683	 H	1	HEM142	0.000	
51	 H09	-2.094	-15.761	3.209	 H	1	HEM142	0.000	
52	 H10	8.369	-9.071	2.990	 H	1	HEM142	0.000	
53	 H11	7.073	-8.697	1.830	 H	1	HEM142	0.000	
54	 H12	7.616	-7.459	2.988	 H	1	HEM142	0.000	
55	 H13	8.606	-13.747	10.606	 H	1	HEM142	0.000	
56	 H14	-0.195	-15.835	0.947	 H	1	HEM142	0.000	
57	 H15	7.806	-15.300	10.944	 H	1	HEM142	0.000	
58	 H16	8.225	-14.860	9.271	 H	1	HEM142	0.000	
59	 H17	2.007	-19.651	7.304	 H	1	HEM142	0.000	
60	 H18	1.628	-19.243	5.606	 H	1	HEM142	0.000	
61	 H19	0.377	-16.720	4.662	 H	1	HEM142	0.000	
62	 H20	2.701	-11.709	1.404	 H	1	HEM142	0.000	
63	 H21	6.763	-10.487	6.165	 H	1	HEM142	0.000	
64	 H22	4.549	-15.521	9.393	 H	1	HEM142	0.000	
65	 H23	-0.066	-12.722	0.556	 H	1	HEM142	0.000	
66	 H24	1.624	-12.897	0.028	 H	1	HEM142	0.000	
67	 H25	0.490	-14.257	-0.154	 H	1	HEM142	0.000	
68	 H26	3.845	-8.699	1.670	 H	1	HEM142	0.000	
69	 H27	5.459	-9.235	1.146	 H	1	HEM142	0.000	
70	 H28	4.020	-10.188	0.712	 H	1	HEM142	0.000	
71	 H29	8.628	-11.558	7.893	 H	1	HEM142	0.000	
72	 H30	7.473	-10.365	8.534	 H	1	HEM142	0.000	
73	 H31	8.096	-11.656	9.589	 H	1	HEM142	0.000	
74	 H32	3.347	-16.999	10.064	 H	1	HEM142	0.000	
75	 H33	1.701	-17.651	9.887	 H	1	HEM142	0.000	
76	 H34	3.086	-18.531	9.196	 H	1	HEM142	0.000	
@<TRIPOS>BOND
1 1 6 1
2 1 28 1
3 1 43 1
4 1 56 1
5 2 7 1
6 2 35 1
7 2 44 1
8 2 45 1
9 3 8 1
10 3 36 1
11 3 46 1
12 3 47 1
13 4 9 1
14 4 37 1
15 4 48 1
16 4 49 1
17 5 22 ar
18 5 38 ar
19 6 11 1
20 6 50 1
21 6 51 1
22 7 52 1
23 7 53 1
24 7 54 1
25 8 55 1
26 8 57 1
27 8 58 1
28 9 12 1
29 9 59 1
30 9 60 1
31 10 23 ar
32 10 39 ar
33 11 26 ar
34 11 32 ar
35 12 27 ar
36 12 33 ar
37 13 25 ar
38 13 41 ar
39 14 22 ar
40 14 41 ar
41 14 61 1
42 15 23 ar
43 15 38 ar
44 15 62 1
45 16 24 ar
46 16 39 ar
47 16 63 1
48 17 25 ar
49 17 40 ar
50 17 64 1
51 18 34 1
52 18 65 1
53 18 66 1
54 18 67 1
55 19 29 1
56 19 68 1
57 19 69 1
58 19 70 1
59 20 30 1
60 20 71 1
61 20 72 1
62 20 73 1
63 21 31 1
64 21 74 1
65 21 75 1
66 21 76 1
67 22 28 ar
68 23 29 ar
69 24 30 ar
70 24 42 ar
71 25 31 ar
72 28 34 ar
73 29 35 ar
74 30 36 ar
75 31 37 ar
76 34 38 ar
77 35 39 ar
78 36 40 ar
79 37 41 ar
80 40 42 ar
@<TRIPOS>SUBSTRUCTURE
1	HEM142	1	GROUP	1 A	HEM
