@<TRIPOS>MOLECULE
HEM_fix
   76    80     1     0     0
SMALL
bcc


@<TRIPOS>ATOM
      1 CAA         -0.3330   -15.9610     2.0210 c3         1 HEM      -0.029200
      2 CAB          6.4310    -8.9940     3.8170 c3         1 HEM      -0.015200
      3 CAC          6.6130   -13.8530    10.0790 c3         1 HEM      -0.020200
      4 CAD          0.5690   -18.1150     7.0600 c3         1 HEM      -0.034200
      5 NA           2.2770   -13.9900     3.8970 nc         1 HEM      -0.031000
      6 CBA         -1.8260   -15.7740     2.1530 c3         1 HEM      -0.190400
      7 CBB          7.4380    -8.5240     2.8420 c3         1 HEM      -0.088100
      8 CBC          7.8880   -14.4770    10.2340 c3         1 HEM      -0.092100
      9 CBD          1.2140   -19.3870     6.6040 c3         1 HEM      -0.188400
     10 NB           4.3060   -11.9950     4.3830 nc         1 HEM       0.005000
     11 CGA         -2.5700   -16.9070     1.4610 c          1 HEM       0.904600
     12 CGD          0.2040   -20.5060     6.5660 c          1 HEM       0.904600
     13 ND           2.8540   -15.2060     6.4610 nc         1 HEM      -0.067000
     14 CHA          1.1490   -15.9720     4.8410 cf         1 HEM      -0.089600
     15 CHB          2.9110   -12.1620     2.3730 cf         1 HEM      -0.036600
     16 CHC          5.9970   -11.2410     5.9830 cf         1 HEM      -0.113600
     17 CHD          4.3150   -15.0530     8.4370 cf         1 HEM      -0.173600
     18 CMA          0.7740   -13.4120     0.4740 c3         1 HEM      -0.064900
     19 CMB          4.4770    -9.5670     1.4820 c3         1 HEM      -0.038900
     20 CMC          7.7890   -11.4070     8.5730 c3         1 HEM      -0.031900
     21 CMD          2.6720   -17.5440     9.4040 c3         1 HEM      -0.064900
     22 C1A          1.3640   -15.0270     3.8280 cc         1 HEM      -0.063000
     23 C1B          3.8920   -11.5540     3.1470 cc         1 HEM      -0.102000
     24 C1C          5.8330   -12.1990     6.9590 cc         1 HEM      -0.048000
     25 C1D          3.2840   -15.6300     7.6940 cc         1 HEM      -0.005000
     26 O1A         -2.7630   -16.8080     0.2330 o          1 HEM      -0.854300
     27 O1D         -0.4230   -20.7040     5.5010 o          1 HEM      -0.854800
     28 C2A          0.6740   -14.9830     2.5660 cc         1 HEM      -0.057200
     29 C2B          4.6240   -10.3750     2.7660 cc         1 HEM      -0.098200
     30 C2C          6.6320   -12.3050     8.1570 cc         1 HEM      -0.128200
     31 C2D          2.5090   -16.7770     8.1010 cc         1 HEM      -0.123200
     32 O2A         -2.9470   -17.8940     2.1380 o          1 HEM      -0.854300
     33 O2D          0.0430   -21.1770     7.6120 o          1 HEM      -0.854800
     34 C3A          1.1580   -13.9190     1.8740 cd         1 HEM      -0.145200
     35 C3B          5.5000   -10.1020     3.7930 cd         1 HEM      -0.146200
     36 C3C          6.1550   -13.3800     8.8610 cd         1 HEM      -0.117200
     37 C3D          1.6090   -17.0350     7.1060 cd         1 HEM      -0.078200
     38 C4A          2.1670   -13.2940     2.7100 cd         1 HEM       0.033600
     39 C4B          5.2920   -11.1340     4.7940 cd         1 HEM       0.042600
     40 C4C          5.0780   -13.9390     8.0830 cd         1 HEM       0.093600
     41 C4D          1.8340   -16.0470     6.0650 cd         1 HEM       0.082600
     42 NC           4.9100   -13.2110     6.9300 nc         1 HEM      -0.033000
     43 H01         -0.1080   -16.9170     2.4940 hc         1 HEM       0.058700
     44 H02          5.6960    -8.2140     3.6190 hc         1 HEM       0.040200
     45 H03          7.0130    -9.1680     4.7220 hc         1 HEM       0.040200
     46 H04          6.7510   -12.9270    10.6380 hc         1 HEM       0.039200
     47 H05          5.8760   -14.5820    10.4160 hc         1 HEM       0.039200
     48 H06          0.1360   -18.2540     8.0510 hc         1 HEM       0.059200
     49 H07         -0.2210   -17.8340     6.3640 hc         1 HEM       0.059200
     50 H08         -2.1050   -14.8310     1.6830 hc         1 HEM       0.032200
     51 H09         -2.0940   -15.7610     3.2090 hc         1 HEM       0.032200
     52 H10          8.3690    -9.0710     2.9900 hc         1 HEM       0.030700
     53 H11          7.0730    -8.6970     1.8300 hc         1 HEM       0.030700
     54 H12          7.6160    -7.4590     2.9880 hc         1 HEM       0.030700
     55 H13          8.6060   -13.7470    10.6060 hc         1 HEM       0.039367
     56 H14         -0.1950   -15.8350     0.9470 hc         1 HEM       0.058700
     57 H15          7.8060   -15.3000    10.9440 hc         1 HEM       0.039367
     58 H16          8.2250   -14.8600     9.2710 hc         1 HEM       0.039367
     59 H17          2.0070   -19.6510     7.3040 hc         1 HEM       0.033200
     60 H18          1.6280   -19.2430     5.6060 hc         1 HEM       0.033200
     61 H19          0.3770   -16.7200     4.6620 ha         1 HEM       0.157000
     62 H20          2.7010   -11.7090     1.4040 ha         1 HEM       0.135000
     63 H21          6.7630   -10.4870     6.1650 ha         1 HEM       0.122000
     64 H22          4.5490   -15.5210     9.3930 ha         1 HEM       0.134000
     65 H23         -0.0660   -12.7220     0.5560 hc         1 HEM       0.057033
     66 H24          1.6240   -12.8970     0.0280 hc         1 HEM       0.057033
     67 H25          0.4900   -14.2570    -0.1540 hc         1 HEM       0.057033
     68 H26          3.8450    -8.6990     1.6700 hc         1 HEM       0.041033
     69 H27          5.4590    -9.2350     1.1460 hc         1 HEM       0.041033
     70 H28          4.0200   -10.1880     0.7120 hc         1 HEM       0.041033
     71 H29          8.6280   -11.5580     7.8930 hc         1 HEM       0.036367
     72 H30          7.4730   -10.3650     8.5340 hc         1 HEM       0.036367
     73 H31          8.0960   -11.6560     9.5890 hc         1 HEM       0.036367
     74 H32          3.3470   -16.9990    10.0640 hc         1 HEM       0.059700
     75 H33          1.7010   -17.6510     9.8870 hc         1 HEM       0.059700
     76 H34          3.0860   -18.5310     9.1960 hc         1 HEM       0.059700
@<TRIPOS>BOND
     1     1     6 1   
     2     1    28 1   
     3     1    43 1   
     4     1    56 1   
     5     2     7 1   
     6     2    35 1   
     7     2    44 1   
     8     2    45 1   
     9     3     8 1   
    10     3    36 1   
    11     3    46 1   
    12     3    47 1   
    13     4     9 1   
    14     4    37 1   
    15     4    48 1   
    16     4    49 1   
    17     5    22 1   
    18     5    38 2   
    19     6    11 1   
    20     6    50 1   
    21     6    51 1   
    22     7    52 1   
    23     7    53 1   
    24     7    54 1   
    25     8    55 1   
    26     8    57 1   
    27     8    58 1   
    28     9    12 1   
    29     9    59 1   
    30     9    60 1   
    31    10    23 1   
    32    10    39 2   
    33    11    26 1   
    34    11    32 1   
    35    12    27 1   
    36    12    33 1   
    37    13    25 1   
    38    13    41 2   
    39    14    22 2   
    40    14    41 1   
    41    14    61 1   
    42    15    23 2   
    43    15    38 1   
    44    15    62 1   
    45    16    24 2   
    46    16    39 1   
    47    16    63 1   
    48    17    25 2   
    49    17    40 1   
    50    17    64 1   
    51    18    34 1   
    52    18    65 1   
    53    18    66 1   
    54    18    67 1   
    55    19    29 1   
    56    19    68 1   
    57    19    69 1   
    58    19    70 1   
    59    20    30 1   
    60    20    71 1   
    61    20    72 1   
    62    20    73 1   
    63    21    31 1   
    64    21    74 1   
    65    21    75 1   
    66    21    76 1   
    67    22    28 1   
    68    23    29 1   
    69    24    30 1   
    70    24    42 1   
    71    25    31 1   
    72    28    34 2   
    73    29    35 2   
    74    30    36 2   
    75    31    37 2   
    76    34    38 1   
    77    35    39 1   
    78    36    40 1   
    79    37    41 1   
    80    40    42 2   
@<TRIPOS>SUBSTRUCTURE
     1 HEM         1 TEMP              0 ****  ****    0 ROOT
